OPT_V10/Two_days_MCY3_MIQCPM1/powerflow_results_t1.txt
Pandapower Network Debug Info
==================================================

BUS:
       vm_pu  va_degree      p_mw    q_mvar
0   0.998806   0.388439 -0.001799  0.001015
1   0.998445   0.636998 -0.001965  0.001654
2   0.997302   0.851740 -0.001222  0.003173
3   0.996929   0.567511 -0.000521  0.004254
4   0.999946   0.003431  0.000387  0.008487
5   0.999939   0.003775  0.002474  0.010789
6   0.999934   0.004013  0.002646  0.010558
7   0.999969   0.002300  0.000000  0.000000
8   0.999969   0.002306  0.000000  0.000000
9   1.000000   0.000000 -0.000127 -0.045014
10  1.000000   0.000006  0.000000  0.000000
--------------------------------------------------

LINE:
   p_from_mw  q_from_mvar   p_to_mw  q_to_mvar         pl_mw       ql_mvar  i_from_ka   i_to_ka      i_ka  vm_from_pu  va_from_degree  vm_to_pu  va_to_degree  loading_percent
0   0.000117     0.041014 -0.000116  -0.041013  1.645369e-06  1.282921e-06   0.001579  0.001579  0.001579    1.000000        0.000006  0.999969      0.002300         0.686361
1   0.005508     0.029834 -0.005508  -0.029834  7.117933e-07  5.549970e-07   0.001168  0.001168  0.001168    0.999969        0.002300  0.999946      0.003431         0.507725
2  -0.005403     0.010178  0.005465  -0.010130  6.211274e-05  4.843033e-05   0.016633  0.016633  0.016633    0.999969        0.002306  0.998806      0.388439         7.231838
3  -0.005120    -0.021347  0.005121   0.021347  1.666717e-07  1.299567e-07   0.000845  0.000845  0.000845    0.999939        0.003775  0.999946      0.003431         0.367388
4  -0.002646    -0.010558  0.002646   0.010558  5.794825e-08  4.518321e-08   0.000419  0.000419  0.000419    0.999934        0.004013  0.999939      0.003775         0.182161
5   0.003176    -0.004836 -0.003157   0.004851  1.986598e-05  1.548983e-05   0.008364  0.008364  0.008364    0.998445        0.636998  0.998806      0.388439         3.636497
6   0.000521    -0.004254 -0.000509   0.004264  1.234237e-05  9.623551e-06   0.006206  0.006206  0.006206    0.996929        0.567511  0.998806      0.388439         2.698145
7   0.001222    -0.003173 -0.001211   0.003181  1.051463e-05  8.198432e-06   0.004921  0.004921  0.004921    0.997302        0.851740  0.998445      0.636998         2.139547
--------------------------------------------------

TRAFO:
    p_hv_mw  q_hv_mvar   p_lv_mw  q_lv_mvar    pl_mw  ql_mvar   i_hv_ka   i_lv_ka  vm_hv_pu  va_hv_degree  vm_lv_pu  va_lv_degree  loading_percent
0 -0.005393   0.011178  0.005403  -0.010178  0.00001    0.001  0.000478  0.016633  0.999969        0.0023  0.999969      0.002306         0.124116
1  0.000127   0.045014 -0.000117  -0.041014  0.00001    0.004  0.000371  0.001579  1.000000        0.0000  1.000000      0.000006         0.112535
--------------------------------------------------
